  53
 
 C         -0.1426406382        0.0000339086       -0.2239738718
 C         -0.1057438124        0.0000306022        1.2488182238
 N          1.0797430829        0.0000160011       -0.8130119240
 O         -1.1945399931        0.0000587425       -0.8414790930
 C         -1.2719641753       -0.0000245424        2.0786653083
 C         -0.8109122573        0.0000315226        3.4176279401
 N          0.5550608787       -0.0000061440        3.4068179765
 C          0.9678107002        0.0000207874        2.1098729968
 H          2.0172003978        0.0000645044        1.8860328201
 C          1.3464980585       -0.0000257183        4.6155961275
 N         -1.5721236398        0.0000050523        4.5032213268
 C         -2.6480810353       -0.0000461999        1.8716477541
 C         -3.4484121445        0.0000202510        2.9981163296
 C         -2.8725841419       -0.0005590881        4.2708597432
 H         -3.0521476602       -0.0004200634        0.8716779978
 H         -4.5235100539        0.0000028222        2.9061569780
 H         -3.4953204494        0.0007252487        5.1554579027
 H          1.8789711377        0.0000065933       -0.2078869459
 C          1.3241440654        0.0000121723       -2.2508935452
 C          2.8132162183        0.0000103141       -2.5715958069
 C          0.6792389644       -1.2640457276       -2.8420087386
 C          0.6792378445        1.2640658939       -2.8420159105
 H          0.7811494175       -1.2895586654       -3.9219569558
 H          1.1513227218       -2.1510331974       -2.4235794101
 H         -0.3769430492       -1.2718987537       -2.5880844556
 H          0.7811475582        1.2895763782       -3.9219641197
 H         -0.3769443432        1.2719160076       -2.5880918652
 H          1.1513194604        2.1510554412       -2.4235884568
 C          3.1902960570        0.0000104739       -3.9141800332
 C          4.5182243425        0.0000104934       -4.2943761684
 C          5.5180222534        0.0000104965       -3.3371958431
 C          5.1650026476        0.0000079323       -2.0019595830
 C          3.8310896082        0.0000077336       -1.6258346441
 H          2.4346736919        0.0000105024       -4.6843385157
 H          4.7732430060        0.0000107541       -5.3439300152
 H          6.5574393131        0.0000105533       -3.6286336162
 H          5.9304278131        0.0000063805       -1.2393179932
 H          3.6236302160        0.0000047353       -0.5650612861
 C          2.8481922727       -0.0000164802        4.3568604255
 H          1.0653239184        0.8817358484        5.2025022057
 H          1.0653144291       -0.8817750249        5.2025133148
 C          3.6367666388       -0.0000103246        5.6648421312
 H          3.1198178987       -0.8864491890        3.7792244395
 H          3.1198054980        0.8864268755        3.7792339593
 C          5.1399390223       -0.0000027043        5.4001262908
 H          3.3696387271        0.8817101166        6.2509159430
 H          3.3696449924       -0.8817318634        6.2509165519
 C          5.9355480705       -0.0000025500        6.6972157824
 H          5.4170190568       -0.8826031163        4.8197367866
 H          5.4170133073        0.8826017028        4.8197397929
 F          7.2819724003        0.0000003979        6.4248416020
 H          5.7353787151        0.8961852806        7.2936791787
 H          5.7353819913       -0.8961931673        7.2936759678
